<?xml version='1.0' encoding='UTF-8' standalone='yes' ?><hierarchy rotation="0"><node index="0" text="" resource-id="" class="android.widget.FrameLayout" package="com.fitghost.app.debug" content-desc="" checkable="false" checked="false" clickable="false" enabled="true" focusable="false" focused="false" scrollable="false" long-clickable="false" password="false" selected="false" bounds="[0,0][1280,2856]" drawing-order="0" hint=""><node index="0" text="" resource-id="" class="android.widget.LinearLayout" package="com.fitghost.app.debug" content-desc="" checkable="false" checked="false" clickable="false" enabled="true" focusable="false" focused="false" scrollable="false" long-clickable="false" password="false" selected="false" bounds="[0,0][1280,2784]" drawing-order="1" hint=""><node index="0" text="" resource-id="android:id/content" class="android.widget.FrameLayout" package="com.fitghost.app.debug" content-desc="" checkable="false" checked="false" clickable="false" enabled="true" focusable="false" focused="false" scrollable="false" long-clickable="false" password="false" selected="false" bounds="[0,156][1280,2784]" drawing-order="2" hint=""><node index="0" text="" resource-id="" class="androidx.compose.ui.platform.ComposeView" package="com.fitghost.app.debug" content-desc="" checkable="false" checked="false" clickable="false" enabled="true" focusable="false" focused="false" scrollable="false" long-clickable="false" password="false" selected="false" bounds="[0,156][1280,2784]" drawing-order="1" hint=""><node index="0" text="" resource-id="" class="android.view.View" package="com.fitghost.app.debug" content-desc="" checkable="false" checked="false" clickable="false" enabled="true" focusable="false" focused="false" scrollable="false" long-clickable="false" password="false" selected="false" bounds="[0,156][1280,2784]" drawing-order="0" hint=""><node index="0" text="" resource-id="" class="android.view.View" package="com.fitghost.app.debug" content-desc="" checkable="false" checked="false" clickable="false" enabled="true" focusable="false" focused="false" scrollable="false" long-clickable="false" password="false" selected="false" bounds="[0,156][1280,2784]" drawing-order="0" hint=""><node index="0" text="" resource-id="" class="android.view.View" package="com.fitghost.app.debug" content-desc="" checkable="false" checked="false" clickable="false" enabled="true" focusable="false" focused="false" scrollable="false" long-clickable="false" password="false" selected="false" bounds="[0,156][1280,2544]" drawing-order="0" hint=""><node index="0" text="" resource-id="" class="android.widget.ScrollView" package="com.fitghost.app.debug" content-desc="" checkable="false" checked="false" clickable="false" enabled="true" focusable="false" focused="false" scrollable="true" long-clickable="false" password="false" selected="false" bounds="[0,348][1280,2544]" drawing-order="0" hint=""><node index="0" text="" resource-id="" class="android.view.View" package="com.fitghost.app.debug" content-desc="" checkable="false" checked="false" clickable="false" enabled="true" focusable="false" focused="false" scrollable="false" long-clickable="false" password="false" selected="false" bounds="[48,384][1232,602]" drawing-order="0" hint=""><node index="0" text="사진을 추가하면 AI가 더 정확한 스타일링을 제안할 수 있어요!" resource-id="" class="android.widget.TextView" package="com.fitghost.app.debug" content-desc="" checkable="false" checked="false" clickable="false" enabled="true" focusable="false" focused="false" scrollable="false" long-clickable="false" password="false" selected="false" bounds="[192,432][1184,554]" drawing-order="0" hint="" /></node><node index="1" text="" resource-id="" class="android.view.View" package="com.fitghost.app.debug" content-desc="" checkable="false" checked="false" clickable="false" enabled="true" focusable="false" focused="false" scrollable="false" long-clickable="false" password="false" selected="false" bounds="[48,662][1232,1250]" drawing-order="0" hint=""><node index="0" text="사진" resource-id="" class="android.widget.TextView" package="com.fitghost.app.debug" content-desc="" checkable="false" checked="false" clickable="false" enabled="true" focusable="false" focused="false" scrollable="false" long-clickable="false" password="false" selected="false" bounds="[108,722][198,794]" drawing-order="0" hint="" /><node index="1" text="" resource-id="" class="android.view.View" package="com.fitghost.app.debug" content-desc="" checkable="false" checked="false" clickable="true" enabled="true" focusable="true" focused="false" scrollable="false" long-clickable="false" password="false" selected="false" bounds="[108,830][1172,1190]" drawing-order="0" hint=""><node index="0" text="사진 선택" resource-id="" class="android.widget.TextView" package="com.fitghost.app.debug" content-desc="" checkable="false" checked="false" clickable="false" enabled="true" focusable="false" focused="false" scrollable="false" long-clickable="false" password="false" selected="false" bounds="[546,1035][734,1105]" drawing-order="0" hint="" /><node index="1" text="" resource-id="" class="android.widget.Button" package="com.fitghost.app.debug" content-desc="" checkable="false" checked="false" clickable="false" enabled="true" focusable="false" focused="false" scrollable="false" long-clickable="false" password="false" selected="false" bounds="[108,830][1172,1190]" drawing-order="0" hint="" /></node></node><node index="2" text="" resource-id="" class="android.view.View" package="com.fitghost.app.debug" content-desc="" checkable="false" checked="false" clickable="false" enabled="true" focusable="false" focused="false" scrollable="false" long-clickable="false" password="false" selected="false" bounds="[48,1310][1232,2286]" drawing-order="0" hint=""><node index="0" text="기본 정보" resource-id="" class="android.widget.TextView" package="com.fitghost.app.debug" content-desc="" checkable="false" checked="false" clickable="false" enabled="true" focusable="false" focused="false" scrollable="false" long-clickable="false" password="false" selected="false" bounds="[108,1370][300,1442]" drawing-order="0" hint="" /><node index="1" text="" resource-id="" class="android.widget.EditText" package="com.fitghost.app.debug" content-desc="" checkable="false" checked="false" clickable="true" enabled="true" focusable="true" focused="false" scrollable="false" long-clickable="true" password="false" selected="false" bounds="[108,1490][1172,1746]" drawing-order="0" hint=""><node index="0" text="이름 *" resource-id="" class="android.widget.TextView" package="com.fitghost.app.debug" content-desc="" checkable="false" checked="false" clickable="false" enabled="true" focusable="false" focused="false" scrollable="false" long-clickable="false" password="false" selected="false" bounds="[156,1563][277,1633]" drawing-order="0" hint="" /><node index="1" text="필수 항목입니다" resource-id="" class="android.widget.TextView" package="com.fitghost.app.debug" content-desc="" checkable="false" checked="false" clickable="false" enabled="true" focusable="false" focused="false" scrollable="false" long-clickable="false" password="false" selected="false" bounds="[156,1694][396,1746]" drawing-order="0" hint="" /></node><node index="2" text="기타" resource-id="" class="android.widget.EditText" package="com.fitghost.app.debug" content-desc="" checkable="false" checked="false" clickable="true" enabled="true" focusable="true" focused="false" scrollable="false" long-clickable="true" password="false" selected="false" bounds="[108,1794][1172,1986]" drawing-order="0" hint=""><node index="0" text="카테고리" resource-id="" class="android.widget.TextView" package="com.fitghost.app.debug" content-desc="" checkable="false" checked="false" clickable="false" enabled="true" focusable="false" focused="false" scrollable="false" long-clickable="false" password="false" selected="false" bounds="[156,1792][288,1844]" drawing-order="0" hint="" /><node index="1" text="" resource-id="" class="android.widget.Spinner" package="com.fitghost.app.debug" content-desc="" checkable="false" checked="false" clickable="false" enabled="true" focusable="false" focused="false" scrollable="false" long-clickable="false" password="false" selected="false" bounds="[108,1794][1172,1986]" drawing-order="0" hint="" /></node><node index="3" text="" resource-id="" class="android.widget.EditText" package="com.fitghost.app.debug" content-desc="" checkable="false" checked="false" clickable="true" enabled="true" focusable="true" focused="false" scrollable="false" long-clickable="true" password="false" selected="false" bounds="[108,2034][1172,2226]" drawing-order="0" hint=""><node index="0" text="브랜드" resource-id="" class="android.widget.TextView" package="com.fitghost.app.debug" content-desc="" checkable="false" checked="false" clickable="false" enabled="true" focusable="false" focused="false" scrollable="false" long-clickable="false" password="false" selected="false" bounds="[156,2107][288,2177]" drawing-order="0" hint="" /></node></node><node index="3" text="" resource-id="" class="android.view.View" package="com.fitghost.app.debug" content-desc="" checkable="false" checked="false" clickable="false" enabled="true" focusable="false" focused="false" scrollable="false" long-clickable="false" password="false" selected="false" bounds="[48,2346][1232,2544]" drawing-order="0" hint=""><node index="0" text="상세 정보" resource-id="" class="android.widget.TextView" package="com.fitghost.app.debug" content-desc="" checkable="false" checked="false" clickable="false" enabled="true" focusable="false" focused="false" scrollable="false" long-clickable="false" password="false" selected="false" bounds="[108,2406][300,2478]" drawing-order="0" hint="" /><node NAF="true" index="1" text="" resource-id="" class="android.widget.EditText" package="com.fitghost.app.debug" content-desc="" checkable="false" checked="false" clickable="true" enabled="true" focusable="true" focused="false" scrollable="false" long-clickable="true" password="false" selected="false" bounds="[108,2526][622,2544]" drawing-order="0" hint="" /><node NAF="true" index="2" text="" resource-id="" class="android.widget.EditText" package="com.fitghost.app.debug" content-desc="" checkable="false" checked="false" clickable="true" enabled="true" focusable="true" focused="false" scrollable="false" long-clickable="true" password="false" selected="false" bounds="[658,2526][1172,2544]" drawing-order="0" hint="" /></node></node><node index="1" text="" resource-id="" class="android.view.View" package="com.fitghost.app.debug" content-desc="" checkable="false" checked="false" clickable="false" enabled="true" focusable="false" focused="false" scrollable="false" long-clickable="false" password="false" selected="false" bounds="[0,156][1280,348]" drawing-order="0" hint=""><node index="0" text="" resource-id="" class="android.view.View" package="com.fitghost.app.debug" content-desc="" checkable="false" checked="false" clickable="true" enabled="true" focusable="true" focused="false" scrollable="false" long-clickable="false" password="false" selected="false" bounds="[12,180][156,324]" drawing-order="0" hint=""><node index="0" text="" resource-id="" class="android.view.View" package="com.fitghost.app.debug" content-desc="뒤로" checkable="false" checked="false" clickable="false" enabled="true" focusable="false" focused="false" scrollable="false" long-clickable="false" password="false" selected="false" bounds="[48,216][120,288]" drawing-order="0" hint="" /><node index="1" text="" resource-id="" class="android.widget.Button" package="com.fitghost.app.debug" content-desc="" checkable="false" checked="false" clickable="false" enabled="true" focusable="false" focused="false" scrollable="false" long-clickable="false" password="false" selected="false" bounds="[24,192][144,312]" drawing-order="0" hint="" /></node><node index="1" text="아이템 추가" resource-id="" class="android.widget.TextView" package="com.fitghost.app.debug" content-desc="" checkable="false" checked="false" clickable="false" enabled="true" focusable="false" focused="false" scrollable="false" long-clickable="false" password="false" selected="false" bounds="[168,208][458,295]" drawing-order="0" hint="" /><node index="2" text="" resource-id="" class="android.view.View" package="com.fitghost.app.debug" content-desc="" checkable="false" checked="false" clickable="true" enabled="true" focusable="true" focused="false" scrollable="false" long-clickable="false" password="false" selected="false" bounds="[1094,180][1268,324]" drawing-order="0" hint=""><node index="0" text="저장" resource-id="" class="android.widget.TextView" package="com.fitghost.app.debug" content-desc="" checkable="false" checked="false" clickable="false" enabled="true" focusable="false" focused="false" scrollable="false" long-clickable="false" password="false" selected="false" bounds="[1137,217][1225,287]" drawing-order="0" hint="" /><node index="1" text="" resource-id="" class="android.widget.Button" package="com.fitghost.app.debug" content-desc="" checkable="false" checked="false" clickable="false" enabled="true" focusable="false" focused="false" scrollable="false" long-clickable="false" password="false" selected="false" bounds="[1094,192][1268,312]" drawing-order="0" hint="" /></node></node></node><node index="1" text="" resource-id="" class="android.view.View" package="com.fitghost.app.debug" content-desc="" checkable="false" checked="false" clickable="false" enabled="true" focusable="false" focused="false" scrollable="false" long-clickable="false" password="false" selected="false" bounds="[0,2544][1280,2784]" drawing-order="0" hint=""><node index="0" text="" resource-id="" class="android.view.View" package="com.fitghost.app.debug" content-desc="" checkable="false" checked="false" clickable="false" enabled="true" focusable="false" focused="false" scrollable="false" long-clickable="false" password="false" selected="false" bounds="[0,2544][1280,2784]" drawing-order="0" hint=""><node index="0" text="" resource-id="" class="android.view.View" package="com.fitghost.app.debug" content-desc="" checkable="false" checked="false" clickable="true" enabled="true" focusable="true" focused="false" scrollable="false" long-clickable="false" password="false" selected="false" bounds="[0,2544][236,2784]" drawing-order="0" hint=""><node index="0" text="" resource-id="" class="android.view.View" package="com.fitghost.app.debug" content-desc="피팅" checkable="false" checked="false" clickable="false" enabled="true" focusable="false" focused="false" scrollable="false" long-clickable="false" password="false" selected="false" bounds="[82,2596][154,2668]" drawing-order="0" hint="" /><node index="1" text="피팅" resource-id="" class="android.widget.TextView" package="com.fitghost.app.debug" content-desc="" checkable="false" checked="false" clickable="false" enabled="true" focusable="false" focused="false" scrollable="false" long-clickable="false" password="false" selected="false" bounds="[85,2680][151,2732]" drawing-order="0" hint="" /><node index="2" text="" resource-id="" class="android.view.View" package="com.fitghost.app.debug" content-desc="" checkable="false" checked="false" clickable="false" enabled="true" focusable="false" focused="false" scrollable="false" long-clickable="false" password="false" selected="false" bounds="[0,2544][236,2784]" drawing-order="0" hint="" /></node><node index="1" text="" resource-id="" class="android.view.View" package="com.fitghost.app.debug" content-desc="" checkable="false" checked="false" clickable="true" enabled="true" focusable="true" focused="false" scrollable="false" long-clickable="false" password="false" selected="false" bounds="[260,2544][497,2784]" drawing-order="0" hint=""><node index="0" text="" resource-id="" class="android.view.View" package="com.fitghost.app.debug" content-desc="옷장" checkable="false" checked="false" clickable="false" enabled="true" focusable="false" focused="false" scrollable="false" long-clickable="false" password="false" selected="false" bounds="[342,2596][414,2668]" drawing-order="0" hint="" /><node index="1" text="옷장" resource-id="" class="android.widget.TextView" package="com.fitghost.app.debug" content-desc="" checkable="false" checked="false" clickable="false" enabled="true" focusable="false" focused="false" scrollable="false" long-clickable="false" password="false" selected="false" bounds="[345,2680][411,2732]" drawing-order="0" hint="" /><node index="2" text="" resource-id="" class="android.view.View" package="com.fitghost.app.debug" content-desc="" checkable="false" checked="false" clickable="false" enabled="true" focusable="false" focused="false" scrollable="false" long-clickable="false" password="false" selected="false" bounds="[260,2544][497,2784]" drawing-order="0" hint="" /></node><node index="2" text="" resource-id="" class="android.view.View" package="com.fitghost.app.debug" content-desc="" checkable="false" checked="false" clickable="true" enabled="true" focusable="true" focused="false" scrollable="false" long-clickable="false" password="false" selected="false" bounds="[521,2544][758,2784]" drawing-order="0" hint=""><node index="0" text="" resource-id="" class="android.view.View" package="com.fitghost.app.debug" content-desc="홈" checkable="false" checked="false" clickable="false" enabled="true" focusable="false" focused="false" scrollable="false" long-clickable="false" password="false" selected="false" bounds="[603,2596][675,2668]" drawing-order="0" hint="" /><node index="1" text="홈" resource-id="" class="android.widget.TextView" package="com.fitghost.app.debug" content-desc="" checkable="false" checked="false" clickable="false" enabled="true" focusable="false" focused="false" scrollable="false" long-clickable="false" password="false" selected="false" bounds="[623,2680][656,2732]" drawing-order="0" hint="" /><node index="2" text="" resource-id="" class="android.view.View" package="com.fitghost.app.debug" content-desc="" checkable="false" checked="false" clickable="false" enabled="true" focusable="false" focused="false" scrollable="false" long-clickable="false" password="false" selected="false" bounds="[521,2544][758,2784]" drawing-order="0" hint="" /></node><node index="3" text="" resource-id="" class="android.view.View" package="com.fitghost.app.debug" content-desc="" checkable="false" checked="false" clickable="true" enabled="true" focusable="true" focused="false" scrollable="false" long-clickable="false" password="false" selected="false" bounds="[782,2544][1019,2784]" drawing-order="0" hint=""><node index="0" text="" resource-id="" class="android.view.View" package="com.fitghost.app.debug" content-desc="상점" checkable="false" checked="false" clickable="false" enabled="true" focusable="false" focused="false" scrollable="false" long-clickable="false" password="false" selected="false" bounds="[864,2596][936,2668]" drawing-order="0" hint="" /><node index="1" text="상점" resource-id="" class="android.widget.TextView" package="com.fitghost.app.debug" content-desc="" checkable="false" checked="false" clickable="false" enabled="true" focusable="false" focused="false" scrollable="false" long-clickable="false" password="false" selected="false" bounds="[867,2680][933,2732]" drawing-order="0" hint="" /><node index="2" text="" resource-id="" class="android.view.View" package="com.fitghost.app.debug" content-desc="" checkable="false" checked="false" clickable="false" enabled="true" focusable="false" focused="false" scrollable="false" long-clickable="false" password="false" selected="false" bounds="[782,2544][1019,2784]" drawing-order="0" hint="" /></node><node index="4" text="" resource-id="" class="android.view.View" package="com.fitghost.app.debug" content-desc="" checkable="false" checked="false" clickable="true" enabled="true" focusable="true" focused="false" scrollable="false" long-clickable="false" password="false" selected="false" bounds="[1043,2544][1280,2784]" drawing-order="0" hint=""><node index="0" text="" resource-id="" class="android.view.View" package="com.fitghost.app.debug" content-desc="갤러리" checkable="false" checked="false" clickable="false" enabled="true" focusable="false" focused="false" scrollable="false" long-clickable="false" password="false" selected="false" bounds="[1126,2596][1198,2668]" drawing-order="0" hint="" /><node index="1" text="갤러리" resource-id="" class="android.widget.TextView" package="com.fitghost.app.debug" content-desc="" checkable="false" checked="false" clickable="false" enabled="true" focusable="false" focused="false" scrollable="false" long-clickable="false" password="false" selected="false" bounds="[1112,2680][1211,2732]" drawing-order="0" hint="" /><node index="2" text="" resource-id="" class="android.view.View" package="com.fitghost.app.debug" content-desc="" checkable="false" checked="false" clickable="false" enabled="true" focusable="false" focused="false" scrollable="false" long-clickable="false" password="false" selected="false" bounds="[1043,2544][1280,2784]" drawing-order="0" hint="" /></node></node></node></node></node></node></node></node></node></hierarchy>